##fileprefix include
##include @@Occupancy@@.idf
##include MaterialsConstructions.idf
##include Geometry.idf

!-   ===========  ALL OBJECTS IN CLASS: VERSION ===========

Version,8.8;

!-   ===========  ALL OBJECTS IN CLASS: SIMULATIONCONTROL ===========


SimulationControl,
    Yes,                     !- Do Zone Sizing Calculation
    No,                      !- Do System Sizing Calculation
    No,                      !- Do Plant Sizing Calculation
    No,                      !- Run Simulation for Sizing Periods
    Yes;                     !- Run Simulation for Weather File Run Periods


!-   ===========  ALL OBJECTS IN CLASS: BUILDING ===========

Building,
    Building ,               !- Name
    @@Orientation@@,          !- North Axis {deg}
    Suburbs,                 !- Terrain
    0.04,                    !- Loads Convergence Tolerance Value
    0.4,                     !- Temperature Convergence Tolerance Value {deltaC}
    FullInteriorAndExteriorWithReflections,  !- Solar Distribution
    365,                     !- Maximum Number of Warmup Days
    6;                       !- Minimum Number of Warmup Days


!-   ===========  ALL OBJECTS IN CLASS: SHADOWCALCULATION ===========

ShadowCalculation,
    AverageOverDaysInFrequency,  !- Calculation Method
    31,                      !- Calculation Frequency
    15000,                   !- Maximum Figures in Shadow Overlap Calculations
    SutherlandHodgman,       !- Polygon Clipping Algorithm
    SimpleSkyDiffuseModeling;!- Sky Diffuse Modeling Algorithm


!-   ===========  ALL OBJECTS IN CLASS: HEATBALANCEALGORITHM ===========

HeatBalanceAlgorithm,ConductionTransferFunction,2000;

!-   ===========  ALL OBJECTS IN CLASS: HEATBALANCESETTINGS:CONDUCTIONFINITEDIFFERENCE ===========


HeatBalanceSettings:ConductionFiniteDifference,
    FullyImplicitFirstOrder, !- Difference Scheme
    3,                       !- Space Discretization Constant
    1,                       !- Relaxation Factor
    0.01;                    !- Inside Face Surface Temperature Convergence Criteria

!-   ===========  ALL OBJECTS IN CLASS: TIMESTEP ===========

Timestep,20;

!-   ===========  ALL OBJECTS IN CLASS: SIZINGPERIOD:WEATHERFILECONDITIONTYPE ===========


SizingPeriod:WeatherFileConditionType,
    Hot,                     !- Name
    SummerExtreme,           !- Period Selection
    Monday,                  !- Day of Week for Start Day
    Yes,                     !- Use Weather File Daylight Saving Period
    Yes;                     !- Use Weather File Rain and Snow Indicators

SizingPeriod:WeatherFileConditionType,
    Cold,                    !- Name
    WinterExtreme,           !- Period Selection
    Monday,                  !- Day of Week for Start Day
    Yes,                     !- Use Weather File Daylight Saving Period
    Yes;                     !- Use Weather File Rain and Snow Indicators


!-   ===========  ALL OBJECTS IN CLASS: RUNPERIOD ===========

RunPeriod,
    Annual,                  !- Name
    1,                       !- Begin Month
    1,                       !- Begin Day of Month
    12,                      !- End Month
    31,                      !- End Day of Month
    UseWeatherFile,          !- Day of Week for Start Day
    No,                      !- Use Weather File Holidays and Special Days
    Yes,                     !- Use Weather File Daylight Saving Period
    Yes,                     !- Apply Weekend Holiday Rule
    Yes,                     !- Use Weather File Rain Indicators
    Yes,                     !- Use Weather File Snow Indicators
    1;                       !- Number of Times Runperiod to be Repeated


!-   ===========  ALL OBJECTS IN CLASS: SITE:GROUNDTEMPERATURE:BUILDINGSURFACE ===========

Site:GroundTemperature:BuildingSurface,18,18,18,18,18,18,18,18,18,18,18,18;

!-   ===========  ALL OBJECTS IN CLASS: SITE:GROUNDREFLECTANCE ===========

!
!
!
! Site:GroundTemperature:BuildingSurface,18,18,18,18,18,18,18,18,18,18,18,18;
Site:GroundReflectance,0.2,0.2,0.2,0.2,0.2,0.2,0.2,0.2,0.2,0.2,0.2,0.2;

!-   ===========  ALL OBJECTS IN CLASS: SITE:GROUNDREFLECTANCE:SNOWMODIFIER ===========


Site:GroundReflectance:SnowModifier,
    2,                       !- Ground Reflected Solar Modifier
    2;                       !- Daylighting Ground Reflected Solar Modifier


!-   ===========  ALL OBJECTS IN CLASS: SCHEDULETYPELIMITS ===========

! Not limited
ScheduleTypeLimits,
    Any Number;              !- Name

ScheduleTypeLimits,
    Fraction,                !- Name
    0.0,                     !- Lower Limit Value
    1.0,                     !- Upper Limit Value
    CONTINUOUS;              !- Numeric Type

ScheduleTypeLimits,
    Temperature,             !- Name
    -60,                     !- Lower Limit Value
    200,                     !- Upper Limit Value
    CONTINUOUS;              !- Numeric Type

ScheduleTypeLimits,
    Control Type,            !- Name
    0,                       !- Lower Limit Value
    4,                       !- Upper Limit Value
    DISCRETE;                !- Numeric Type

ScheduleTypeLimits,
    On/Off,                  !- Name
    0,                       !- Lower Limit Value
    1,                       !- Upper Limit Value
    DISCRETE;                !- Numeric Type

ScheduleTypeLimits,
    Number,                  !- Name
    1,                       !- Lower Limit Value
    4,                       !- Upper Limit Value
    DISCRETE;                !- Numeric Type

ScheduleTypeLimits,
    Integer ID Six Digits,   !- Name
    -999999,                 !- Lower Limit Value
    999999,                  !- Upper Limit Value
    DISCRETE;                !- Numeric Type

!
! -------------------------------------------------------------
! New objects created from ExpandObjects
! -------------------------------------------------------------
!
ScheduleTypeLimits,
    HVACTemplate Any Number; !- Name


!-   ===========  ALL OBJECTS IN CLASS: SCHEDULE:COMPACT ===========

Schedule:Compact,
    On,                      !- Name
    Any Number,              !- Schedule Type Limits Name
    Through: 12/31,          !- Field 1
    For: AllDays,            !- Field 2
    Until: 24:00, 1;         !- Field 4

Schedule:Compact,
    Heating Availability Sch,!- Name
    Any Number,              !- Schedule Type Limits Name
    Through: 12/31,          !- Field 1
    For: AllDays,            !- Field 2
    Until: 24:00, 1;         !- Field 4

Schedule:Compact,
    Cooling Availability Sch,!- Name
    Any Number,              !- Schedule Type Limits Name
    Through: 12/31,          !- Field 1
    For: AllDays,            !- Field 2
    Until: 24:00, 1;         !- Field 4

Schedule:Compact,
    Zone Control Type Sched, !- Name
    Control Type,            !- Schedule Type Limits Name
    Through: 12/31,          !- Field 1
    For: SummerDesignDay,    !- Field 2
    Until: 24:00, 4,         !- Field 4
    For: WinterDesignDay,    !- Field 5
    Until: 24:00, 4,         !- Field 7
    For: AllOtherDays,       !- Field 8
    Until: 24:00, 4;         !- Field 10

Schedule:Compact,
    INFIL_SCH_PNNL,          !- Name
    fraction,                !- Schedule Type Limits Name
    Through: 12/31,          !- Field 1
    For: Weekdays SummerDesignDay,  !- Field 2
    Until: 06:00, 1.0,       !- Field 4
    Until: 22:00, 0.25,      !- Field 6
    Until: 24:00, 1.0,       !- Field 8
    For: Saturday WinterDesignDay,  !- Field 9
    Until: 06:00, 1.0,       !- Field 11
    Until: 18:00, 0.25,      !- Field 13
    Until: 24:00, 1.0,       !- Field 15
    For: Sunday Holidays AllOtherDays,  !- Field 16
    Until: 24:00, 1.0;       !- Field 18

Schedule:Compact,
    Heating SP Sch,          !- Name
    Temperature,             !- Schedule Type Limits Name
    Through: 31 Dec,         !- Field 1
    For: AllDays,            !- Field 2
    Until: 07:00, 18,        !- Field 4
    Until: 18:00, @@HeatingSetPoint@@,        !- Field 6
    Until 24:00,             !- Field 7
    18;                      !- Field 8

Schedule:Compact,
    Cooling SP Sch,          !- Name
    Temperature,             !- Schedule Type Limits Name
    Through: 31 Dec,         !- Field 1
    For: AllDays,            !- Field 2
    Until: 06:00, 27,        !- Field 4
    Until 18:00,             !- Field 5
    @@CoolingSetPoint@@,                      !- Field 6
    Until: 24:00, 27;        !- Field 8

Schedule:Compact,
    Winter Design Setpoint,  !- Name
    Temperature,             !- Schedule Type Limits Name
    Through: 12/31,          !- Field 1
    For: WinterDesignDay,    !- Field 2
    Until: 24:00, @@HeatingSetPoint@@,        !- Field 4
    For: AllOtherDays,       !- Field 5
    Until: 24:00, @@HeatingSetPoint@@;        !- Field 7

Schedule:Compact,
    Summer Design Setpoint,  !- Name
    Temperature,             !- Schedule Type Limits Name
    Through: 12/31,          !- Field 1
    For: SummerDesignDay,    !- Field 2
    Until: 24:00, @@CoolingSetPoint@@,        !- Field 4
    For: AllOtherDays,       !- Field 5
    Until: 24:00, @@CoolingSetPoint@@;        !- Field 7

Schedule:Compact,
    WorkEfficiency,          !- Name
    Fraction,                !- Schedule Type Limits Name
    Through: 12/31,          !- Field 1
    For: AllDays,            !- Field 2
    Until: 24:00, 0.0;       !- Field 4

Schedule:Compact,
    AirVolicity,             !- Name
    Any Number,              !- Schedule Type Limits Name
    Through: 12/31,          !- Field 1
    For: AllDays,            !- Field 2
    Until: 24:00, 0.2;       !- Field 4

Schedule:Compact,
    OCC-SCHED-BldgAvg,       !- Name
    Any Number,              !- Schedule Type Limits Name
    Through: 12/31,          !- Field 1
    For: Weekdays SummerDesignDay,  !- Field 2
    Until:  4:00, 0.,        !- Field 4
    Until:  5:00, 0.05,      !- Field 6
    Until:  6:00, 0.1,       !- Field 8
    Until:  7:00, 0.25,      !- Field 10
    Until: 11:00, 0.65,      !- Field 12
    Until: 13:00, 0.6,       !- Field 14
    Until: 17:00, 0.65,      !- Field 16
    Until: 18:00, 0.4,       !- Field 18
    Until: 19:00, 0.25,      !- Field 20
    Until: 20:00, 0.1,       !- Field 22
    Until: 23:00, 0.05,      !- Field 24
    Until: 24:00, 0.,        !- Field 26
    For: Saturday,           !- Field 27
    Until:  6:00, 0.,        !- Field 29
    Until:  7:00, 0.05,      !- Field 31
    Until: 17:00, 0.15,      !- Field 33
    Until: 20:00, 0.05,      !- Field 35
    Until: 24:00, 0.,        !- Field 37
    For: Sunday Holidays WinterDesignDay AllOtherDays,  !- Field 38
    Until:  7:00, 0.,        !- Field 40
    Until: 20:00, 0.05,      !- Field 42
    Until: 24:00, 0.;        !- Field 44

Schedule:Compact,
    LIT-SCHED-BldgAvg,       !- Name
    Any Number,              !- Schedule Type Limits Name
    Through: 12/31,          !- Field 1
    For: Weekdays SummerDesignDay,  !- Field 2
    Until:  4:00, 0.05,      !- Field 4
    Until:  5:00, 0.1,       !- Field 6
    Until:  6:00, 0.2,       !- Field 8
    Until:  7:00, 0.4,       !- Field 10
    Until:  8:00, 0.7,       !- Field 12
    Until:  9:00, 0.8,       !- Field 14
    Until:  17:00, 0.85,     !- Field 16
    Until:  18:00, 0.8,      !- Field 18
    Until:  19:00, 0.35,     !- Field 20
    Until: 24:00, 0.1,       !- Field 22
    For: Saturday,           !- Field 23
    Until:  5:00, 0.05,      !- Field 25
    Until:  6:00, 0.1,       !- Field 27
    Until:  7:00, 0.15,      !- Field 29
    Until:  9:00, 0.21,      !- Field 31
    Until: 14:00, 0.25,      !- Field 33
    Until: 17:00, 0.2,       !- Field 35
    Until: 18:00, 0.15,      !- Field 37
    Until: 24:00, 0.1,       !- Field 39
    For: Sunday Holidays WinterDesignDay AllOtherDays,  !- Field 40
    Until:  5:00, 0.05,      !- Field 42
    Until:  7:00, 0.1,       !- Field 44
    Until:  17:00, 0.15,     !- Field 46
    Until:  20:00, 0.1,      !- Field 48
    Until:  24:00, 0.05;     !- Field 50

Schedule:Compact,
    LIT_BiLevel-SCHED,       !- Name
    Any Number,              !- Schedule Type Limits Name
    Through: 12/31,          !- Field 1
    For: Weekdays SummerDesignDay,  !- Field 2
    Until:  4:00, 0.04,      !- Field 4
    Until:  5:00, 0.08,      !- Field 6
    Until:  6:00, 0.15,      !- Field 8
    Until:  7:00, 0.31,      !- Field 10
    Until:  8:00, 0.56,      !- Field 12
    Until:  9:00, 0.67,      !- Field 14
    Until:  10:00, 0.73,     !- Field 16
    Until:  14:00, 0.74,     !- Field 18
    Until:  15:00, 0.73,     !- Field 20
    Until:  16:00, 0.71,     !- Field 22
    Until:  17:00, 0.70,     !- Field 24
    Until:  18:00, 0.64,     !- Field 26
    Until:  19:00, 0.28,     !- Field 28
    Until:  21:00, 0.08,     !- Field 30
    Until:  23:00, 0.07,     !- Field 32
    Until:  24:00, 0.08,     !- Field 34
    For: Saturday,           !- Field 35
    Until:  5:00, 0.04,      !- Field 37
    Until:  6:00, 0.08,      !- Field 39
    Until:  7:00, 0.12,      !- Field 41
    Until:  8:00, 0.2,       !- Field 43
    Until:  14:00, 0.22,     !- Field 45
    Until:  16:00, 0.17,     !- Field 47
    Until:  17:00, 0.16,     !- Field 49
    Until:  18:00, 0.12,     !- Field 51
    Until:  21:00, 0.08,     !- Field 53
    Until:  23:00, 0.07,     !- Field 55
    Until:  24:00, 0.08,     !- Field 57
    For: Sunday Holidays WinterDesignDay AllOtherDays,  !- Field 58
    Until:  5:00, 0.04,      !- Field 60
    Until:  7:00, 0.08,      !- Field 62
    Until:  8:00, 0.12,      !- Field 64
    Until:  16:00, 0.13,     !- Field 66
    Until:  17:00, 0.12,     !- Field 68
    Until:  20:00, 0.08,     !- Field 70
    Until:  24:00, 0.04;     !- Field 72

Schedule:Compact,
    LIT_Stack-SCHED,         !- Name
    Any Number,              !- Schedule Type Limits Name
    Through: 12/31,          !- Field 1
    For: Weekdays SummerDesignDay,  !- Field 2
    Until:  4:00, 0.04,      !- Field 4
    Until:  5:00, 0.09,      !- Field 6
    Until:  6:00, 0.17,      !- Field 8
    Until:  7:00, 0.34,      !- Field 10
    Until:  8:00, 0.6,       !- Field 12
    Until:  9:00, 0.68,      !- Field 14
    Until:  17:00, 0.72,     !- Field 16
    Until:  18:00, 0.68,     !- Field 18
    Until:  19:00, 0.3,      !- Field 20
    Until: 24:00, 0.09,      !- Field 22
    For: Saturday,           !- Field 23
    Until:  5:00, 0.04,      !- Field 25
    Until:  6:00, 0.09,      !- Field 27
    Until:  7:00, 0.13,      !- Field 29
    Until: 14:00, 0.22,      !- Field 31
    Until: 17:00, 0.17,      !- Field 33
    Until: 18:00, 0.13,      !- Field 35
    Until: 24:00, 0.09,      !- Field 37
    For: Sunday Holidays WinterDesignDay AllOtherDays,  !- Field 38
    Until:  5:00, 0.04,      !- Field 40
    Until:  7:00, 0.09,      !- Field 42
    Until:  17:00, 0.13,     !- Field 44
    Until:  20:00, 0.09,     !- Field 46
    Until:  24:00, 0.04;     !- Field 48

Schedule:Compact,
    LIT_Library-SCHED,       !- Name
    Any Number,              !- Schedule Type Limits Name
    Through: 12/31,          !- Field 1
    For: Weekdays SummerDesignDay,  !- Field 2
    Until:  4:00, 0.04,      !- Field 4
    Until:  5:00, 0.08,      !- Field 6
    Until:  6:00, 0.16,      !- Field 8
    Until:  7:00, 0.33,      !- Field 10
    Until:  8:00, 0.6,       !- Field 12
    Until:  9:00, 0.73,      !- Field 14
    Until:  10:00, 0.8,      !- Field 16
    Until:  11:00, 0.81,     !- Field 18
    Until:  13:00, 0.82,     !- Field 20
    Until:  14:00, 0.81,     !- Field 22
    Until:  15:00, 0.8,      !- Field 24
    Until:  16:00, 0.78,     !- Field 26
    Until:  17:00, 0.75,     !- Field 28
    Until:  18:00, 0.66,     !- Field 30
    Until:  19:00, 0.28,     !- Field 32
    Until:  24:00, 0.08,     !- Field 34
    For: Saturday,           !- Field 35
    Until:  5:00, 0.04,      !- Field 37
    Until:  6:00, 0.09,      !- Field 39
    Until:  7:00, 0.13,      !- Field 41
    Until: 14:00, 0.22,      !- Field 43
    Until: 17:00, 0.17,      !- Field 45
    Until: 18:00, 0.13,      !- Field 47
    Until: 24:00, 0.09,      !- Field 49
    For: Sunday Holidays WinterDesignDay AllOtherDays,  !- Field 50
    Until:  5:00, 0.04,      !- Field 52
    Until:  7:00, 0.09,      !- Field 54
    Until:  17:00, 0.13,     !- Field 56
    Until:  20:00, 0.09,     !- Field 58
    Until:  24:00, 0.04;     !- Field 60

Schedule:Compact,
    LIT_ManualDimming-SCHED, !- Name
    Any Number,              !- Schedule Type Limits Name
    Through: 12/31,          !- Field 1
    For: Weekdays SummerDesignDay,  !- Field 2
    Until:  4:00, 0.05,      !- Field 4
    Until:  5:00, 0.09,      !- Field 6
    Until:  6:00, 0.18,      !- Field 8
    Until:  7:00, 0.36,      !- Field 10
    Until:  8:00, 0.63,      !- Field 12
    Until:  9:00, 0.72,      !- Field 14
    Until:  17:00, 0.77,     !- Field 16
    Until:  18:00, 0.72,     !- Field 18
    Until:  19:00, 0.32,     !- Field 20
    Until: 24:00, 0.09,      !- Field 22
    For: Saturday,           !- Field 23
    Until:  5:00, 0.05,      !- Field 25
    Until:  6:00, 0.09,      !- Field 27
    Until:  7:00, 0.14,      !- Field 29
    Until: 14:00, 0.23,      !- Field 31
    Until: 17:00, 0.18,      !- Field 33
    Until: 18:00, 0.14,      !- Field 35
    Until: 24:00, 0.09,      !- Field 37
    For: Sunday Holidays WinterDesignDay AllOtherDays,  !- Field 38
    Until:  5:00, 0.05,      !- Field 40
    Until:  7:00, 0.09,      !- Field 42
    Until:  17:00, 0.14,     !- Field 44
    Until:  20:00, 0.09,     !- Field 46
    Until:  24:00, 0.05;     !- Field 48

Schedule:Compact,
    LIT_ProgramMulti-SCHED,  !- Name
    Any Number,              !- Schedule Type Limits Name
    Through: 12/31,          !- Field 1
    For: Weekdays SummerDesignDay,  !- Field 2
    Until:  4:00, 0.04,      !- Field 4
    Until:  5:00, 0.08,      !- Field 6
    Until:  6:00, 0.16,      !- Field 8
    Until:  7:00, 0.32,      !- Field 10
    Until:  8:00, 0.56,      !- Field 12
    Until:  9:00, 0.64,      !- Field 14
    Until:  17:00, 0.68,     !- Field 16
    Until:  18:00, 0.64,     !- Field 18
    Until:  19:00, 0.28,     !- Field 20
    Until:  24:00, 0.08,     !- Field 22
    For: Saturday,           !- Field 23
    Until:  5:00, 0.04,      !- Field 25
    Until:  6:00, 0.08,      !- Field 27
    Until:  7:00, 0.12,      !- Field 29
    Until: 14:00, 0.2,       !- Field 31
    Until: 17:00, 0.16,      !- Field 33
    Until: 18:00, 0.12,      !- Field 35
    Until: 24:00, 0.08,      !- Field 37
    For: Sunday Holidays WinterDesignDay AllOtherDays,  !- Field 38
    Until:  5:00, 0.04,      !- Field 40
    Until:  7:00, 0.08,      !- Field 42
    Until:  17:00, 0.12,     !- Field 44
    Until:  20:00, 0.08,     !- Field 46
    Until:  24:00, 0.04;     !- Field 48

Schedule:Compact,
    LIT_CombinedDaylight-SCHED,  !- Name
    Any Number,              !- Schedule Type Limits Name
    Through: 12/31,          !- Field 1
    For: Weekdays SummerDesignDay,  !- Field 2
    Until:  4:00, 0.04,      !- Field 4
    Until:  5:00, 0.08,      !- Field 6
    Until:  6:00, 0.15,      !- Field 8
    Until:  7:00, 0.31,      !- Field 10
    Until:  8:00, 0.56,      !- Field 12
    Until:  9:00, 0.67,      !- Field 14
    Until:  10:00, 0.73,     !- Field 16
    Until:  14:00, 0.74,     !- Field 18
    Until:  15:00, 0.73,     !- Field 20
    Until:  16:00, 0.71,     !- Field 22
    Until:  17:00, 0.7,      !- Field 24
    Until:  18:00, 0.64,     !- Field 26
    Until:  19:00, 0.28,     !- Field 28
    Until:  21:00, 0.08,     !- Field 30
    Until:  23:00, 0.07,     !- Field 32
    Until:  24:00, 0.08,     !- Field 34
    For: Saturday,           !- Field 35
    Until:  5:00, 0.04,      !- Field 37
    Until:  6:00, 0.08,      !- Field 39
    Until:  7:00, 0.12,      !- Field 41
    Until:  8:00, 0.2,       !- Field 43
    Until:  9:00, 0.21,      !- Field 45
    Until: 14:00, 0.22,      !- Field 47
    Until: 16:00, 0.17,      !- Field 49
    Until: 17:00, 0.16,      !- Field 51
    Until: 18:00, 0.12,      !- Field 53
    Until: 21:00, 0.08,      !- Field 55
    Until: 23:00, 0.07,      !- Field 57
    Until: 24:00, 0.08,      !- Field 59
    For: Sunday Holidays WinterDesignDay AllOtherDays,  !- Field 60
    Until:  5:00, 0.04,      !- Field 62
    Until:  7:00, 0.08,      !- Field 64
    Until:  8:00, 0.12,      !- Field 66
    Until:  16:00, 0.13,     !- Field 68
    Until:  17:00, 0.12,     !- Field 70
    Until:  20:00, 0.08,     !- Field 72
    Until:  24:00, 0.04;     !- Field 74

Schedule:Compact,
    LIT_CombinedDimming-SCHED,  !- Name
    Any Number,              !- Schedule Type Limits Name
    Through: 12/31,          !- Field 1
    For: Weekdays SummerDesignDay,  !- Field 2
    Until:  4:00, 0.04,      !- Field 4
    Until:  5:00, 0.07,      !- Field 6
    Until:  6:00, 0.14,      !- Field 8
    Until:  7:00, 0.29,      !- Field 10
    Until:  8:00, 0.53,      !- Field 12
    Until:  9:00, 0.64,      !- Field 14
    Until:  10:00, 0.7,      !- Field 16
    Until:  14:00, 0.71,     !- Field 18
    Until:  15:00, 0.7,      !- Field 20
    Until:  16:00, 0.68,     !- Field 22
    Until:  17:00, 0.65,     !- Field 24
    Until:  18:00, 0.6,      !- Field 26
    Until:  19:00, 0.26,     !- Field 28
    Until: 24:00, 0.07,      !- Field 30
    For: Saturday,           !- Field 31
    Until:  5:00, 0.04,      !- Field 33
    Until:  6:00, 0.07,      !- Field 35
    Until:  7:00, 0.11,      !- Field 37
    Until:  8:00, 0.19,      !- Field 39
    Until:  9:00, 0.2,       !- Field 41
    Until: 14:00, 0.21,      !- Field 43
    Until: 16:00, 0.16,      !- Field 45
    Until: 17:00, 0.15,      !- Field 47
    Until: 18:00, 0.11,      !- Field 49
    Until: 24:00, 0.07,      !- Field 51
    For: Sunday Holidays WinterDesignDay AllOtherDays,  !- Field 52
    Until:  5:00, 0.04,      !- Field 54
    Until:  7:00, 0.07,      !- Field 56
    Until:  8:00, 0.11,      !- Field 58
    Until:  10:00, 0.12,     !- Field 60
    Until:  14:00, 0.13,     !- Field 62
    Until:  17:00, 0.12,     !- Field 64
    Until:  18:00, 0.08,     !- Field 66
    Until:  20:00, 0.07,     !- Field 68
    Until:  24:00, 0.03;     !- Field 70

Schedule:Compact,
    EQP-SCHED-BldgAvg,       !- Name
    Any Number,              !- Schedule Type Limits Name
    Through: 12/31,          !- Field 1
    For: Weekdays SummerDesignDay,  !- Field 2
    Until:  5:00, 0.15,      !- Field 4
    Until:  6:00, 0.2,       !- Field 6
    Until:  7:00, 0.35,      !- Field 8
    Until:  8:00, 0.6,       !- Field 10
    Until: 16:00, 0.7,       !- Field 12
    Until: 17:00, 0.65,      !- Field 14
    Until: 18:00, 0.45,      !- Field 16
    Until: 19:00, 0.3,       !- Field 18
    Until: 21:00, 0.2,       !- Field 20
    Until: 24:00, 0.15,      !- Field 22
    For: Saturday,           !- Field 23
    Until:  7:00, 0.15,      !- Field 25
    Until:  8:00, 0.2,       !- Field 27
    Until: 14:00, 0.25,      !- Field 29
    Until: 17:00, 0.2,       !- Field 31
    Until: 24:00, 0.15,      !- Field 33
    For: Sunday Holidays WinterDesignDay AllOtherDays,  !- Field 34
    Until:  7:00, 0.15,      !- Field 36
    Until: 17:00, 0.2,       !- Field 38
    Until: 24:00, 0.15;      !- Field 40

Schedule:Compact,
    INF-SCHED-BldgAvg,       !- Name
    Any Number,              !- Schedule Type Limits Name
    Through: 12/31,          !- Field 1
    For: Weekdays SummerDesignDay,  !- Field 2
    Until:  5:00, 1.0,       !- Field 4
    Until: 20:00, 0.0,       !- Field 6
    Until: 24:00, 1.0,       !- Field 8
    For: Saturday,           !- Field 9
    Until:  5:00, 1.0,       !- Field 11
    Until: 15:00, 0.0,       !- Field 13
    Until: 24:00, 1.0,       !- Field 15
    For: Sunday Holidays WinterDesignDay AllOtherDays,  !- Field 16
    Until: 24:00, 1.0;       !- Field 18

Schedule:Compact,
    FAN-SCHED-BldgAvg,       !- Name
    On/Off,                  !- Schedule Type Limits Name
    Through: 12/31,          !- Field 1
    For: Weekdays SummerDesignDay,  !- Field 2
    Until:  5:00, 0.,        !- Field 4
    Until: 20:00, 1.,        !- Field 6
    Until: 24:00, 0.,        !- Field 8
    For: Saturday,           !- Field 9
    Until:  5:00, 0.,        !- Field 11
    Until: 15:00, 1.,        !- Field 13
    Until: 24:00, 0.,        !- Field 15
    For: Sunday Holidays WinterDesignDay AllOtherDays,  !- Field 16
    Until: 24:00, 0.;        !- Field 18

Schedule:Compact,
    HTG-SCHED-BldgAvg,       !- Name
    Temperature,             !- Schedule Type Limits Name
    Through: 12/31,          !- Field 1
    For: Weekdays SummerDesignDay,  !- Field 2
    Until:  5:00, 15.6,      !- Field 4
    Until:  7:00, 18.3,      !- Field 6
    Until: 18:00, 21.1,      !- Field 8
    Until: 19:00, 18.3,      !- Field 10
    Until: 24:00, 15.6,      !- Field 12
    For: Weekends Holidays WinterDesignDay AllOtherDays,  !- Field 13
    Until:  5:00, 15.6,      !- Field 15
    Until: 16:00, 18.3,      !- Field 17
    Until: 24:00, 15.6;      !- Field 19

Schedule:Compact,
    CLG-SCHED-BldgAvg,       !- Name
    Temperature,             !- Schedule Type Limits Name
    Through: 12/31,          !- Field 1
    For: Alldays,            !- Field 2
    Until:  5:00, 25.0,      !- Field 4
    Until: 18:00, 22.8,      !- Field 6
    Until: 24:00, 25.0;      !- Field 8

Schedule:Compact,
    DHW-SCHED-BldgAvg,       !- Name
    Any Number,              !- Schedule Type Limits Name
    Through: 12/31,          !- Field 1
    For: Weekdays SummerDesignDay,  !- Field 2
    Until:  4:00, 0.,        !- Field 4
    Until:  6:00, 0.1,       !- Field 6
    Until: 10:00, 0.5,       !- Field 8
    Until: 11:00, 0.7,       !- Field 10
    Until: 13:00, 0.9,       !- Field 12
    Until: 15:00, 0.5,       !- Field 14
    Until: 16:00, 0.7,       !- Field 16
    Until: 19:00, 0.5,       !- Field 18
    Until: 23:00, 0.1,       !- Field 20
    Until: 24:00, 0.,        !- Field 22
    For: Saturday,           !- Field 23
    Until:  6:00, 0.,        !- Field 25
    Until:  7:00, 0.1,       !- Field 27
    Until: 17:00, 0.2,       !- Field 29
    Until: 20:00, 0.1,       !- Field 31
    Until: 24:00, 0.,        !- Field 33
    For: Sunday Holidays WinterDesignDay AllOtherDays,  !- Field 34
    Until:  7:00, 0.,        !- Field 36
    Until: 20:00, 0.1,       !- Field 38
    Until: 24:00, 0.;        !- Field 40

Schedule:Compact,
    ActSchd103,              !- Name
    Any Number,              !- Schedule Type Limits Name
    Through: 12/31,          !- Field 1
    For: Alldays,            !- Field 2
    Until: 24:00, 103;       !- Field 4

Schedule:Compact,
    ActSchd105,              !- Name
    Any Number,              !- Schedule Type Limits Name
    Through: 12/31,          !- Field 1
    For: Alldays,            !- Field 2
    Until: 24:00, 105;       !- Field 4

Schedule:Compact,
    ActSchd122,              !- Name
    Any Number,              !- Schedule Type Limits Name
    Through: 12/31,          !- Field 1
    For: Alldays,            !- Field 2
    Until: 24:00, 122;       !- Field 4

Schedule:Compact,
    ActSchd132,              !- Name
    Any Number,              !- Schedule Type Limits Name
    Through: 12/31,          !- Field 1
    For: Alldays,            !- Field 2
    Until: 24:00, 132;       !- Field 4

Schedule:Compact,
    ActSchd134,              !- Name
    Any Number,              !- Schedule Type Limits Name
    Through: 12/31,          !- Field 1
    For: Alldays,            !- Field 2
    Until: 24:00, 134;       !- Field 4

Schedule:Compact,
    ActSchd136,              !- Name
    Any Number,              !- Schedule Type Limits Name
    Through: 12/31,          !- Field 1
    For: Alldays,            !- Field 2
    Until: 24:00, 136;       !- Field 4

Schedule:Compact,
    ActSchd140,              !- Name
    Any Number,              !- Schedule Type Limits Name
    Through: 12/31,          !- Field 1
    For: Alldays,            !- Field 2
    Until: 24:00, 140;       !- Field 4

Schedule:Compact,
    ActSchd146,              !- Name
    Any Number,              !- Schedule Type Limits Name
    Through: 12/31,          !- Field 1
    For: Alldays,            !- Field 2
    Until: 24:00, 146;       !- Field 4

Schedule:Compact,
    ActSchd178,              !- Name
    Any Number,              !- Schedule Type Limits Name
    Through: 12/31,          !- Field 1
    For: Alldays,            !- Field 2
    Until: 24:00, 178;       !- Field 4

Schedule:Compact,
    ActSchd197,              !- Name
    Any Number,              !- Schedule Type Limits Name
    Through: 12/31,          !- Field 1
    For: Alldays,            !- Field 2
    Until: 24:00, 197;       !- Field 4

Schedule:Compact,
    ActSchd293,              !- Name
    Any Number,              !- Schedule Type Limits Name
    Through: 12/31,          !- Field 1
    For: Alldays,            !- Field 2
    Until: 24:00, 293;       !- Field 4

Schedule:Compact,
    Residential_Occupancy,   !- Name
    Fraction,                !- Schedule Type Limits Name
    Through: 12/31,          !- Field 1
    For: Weekdays,           !- Field 2
    Until: 06:00, 0.95,      !- Field 4
    Until: 07:00, 0.7,       !- Field 6
    Until: 08:00, 0.5,       !- Field 8
    Until: 12:00, 0.5,       !- Field 10
    Until: 13:00, 0.3,       !- Field 12
    Until: 17:00, 0.5,       !- Field 14
    Until: 18:00, 0.55,      !- Field 16
    Until: 22:00, 0.95,      !- Field 18
    Until: 24:00, 0.95,      !- Field 20
    For: SummerDesignDay,    !- Field 21
    Until: 06:00, 0.8,       !- Field 23
    Until: 22:00, 0.8,       !- Field 25
    Until: 24:00, 0.8,       !- Field 27
    For: Saturday,           !- Field 28
    Until: 06:00, 0.95,      !- Field 30
    Until: 08:00, 0.7,       !- Field 32
    Until: 12:00, 0.4,       !- Field 34
    Until: 17:00, 0.3,       !- Field 36
    Until: 19:00, 0.8,       !- Field 38
    Until: 24:00, 0.95,      !- Field 40
    For: WinterDesignDay,    !- Field 41