!-Generator IDFEditor 1.44
!-Option SortedOrder

!-NOTE: All comments with '!-' are ignored by the IDFEditor and are generated automatically.
!-      Use '!' comments if they need to be retained when using the IDFEditor.


!-   ===========  ALL OBJECTS IN CLASS: VERSION ===========

! Roof model for Deep Run elementary school to demonstrate benefits of specified Phase Change Energy Solutions BioPCMat products.
Version,
    8.1;                     !- Version Identifier


!-   ===========  ALL OBJECTS IN CLASS: SIMULATIONCONTROL ===========

SimulationControl,
    Yes,                     !- Do Zone Sizing Calculation
    No,                      !- Do System Sizing Calculation
    No,                      !- Do Plant Sizing Calculation
    No,                      !- Run Simulation for Sizing Periods
    Yes;                     !- Run Simulation for Weather File Run Periods


!-   ===========  ALL OBJECTS IN CLASS: BUILDING ===========

Building,
    Deep Run Elementary School Roof Model BioPCM Case,  !- Name
    345,                     !- North Axis {deg}
    Suburbs,                 !- Terrain
    0.5,                     !- Loads Convergence Tolerance Value
    0.5,                     !- Temperature Convergence Tolerance Value {deltaC}
    FullInteriorAndExterior, !- Solar Distribution
    365,                     !- Maximum Number of Warmup Days
    6;                       !- Minimum Number of Warmup Days


!-   ===========  ALL OBJECTS IN CLASS: SHADOWCALCULATION ===========

ShadowCalculation,
    AverageOverDaysInFrequency,  !- Calculation Method
    20,                      !- Calculation Frequency
    15000,                   !- Maximum Figures in Shadow Overlap Calculations
    SutherlandHodgman;       !- Polygon Clipping Algorithm


!-   ===========  ALL OBJECTS IN CLASS: SURFACECONVECTIONALGORITHM:INSIDE ===========

SurfaceConvectionAlgorithm:Inside,
    TARP;                    !- Algorithm


!-   ===========  ALL OBJECTS IN CLASS: SURFACECONVECTIONALGORITHM:OUTSIDE ===========

SurfaceConvectionAlgorithm:Outside,
    DOE-2;                   !- Algorithm


!-   ===========  ALL OBJECTS IN CLASS: HEATBALANCEALGORITHM ===========

HeatBalanceAlgorithm,
    ConductionFiniteDifference,  !- Algorithm
    200,                     !- Surface Temperature Upper Limit {C}
    1,                       !- Minimum Surface Convection Heat Transfer Coefficient Value {W/m2-K}
    10000;                   !- Maximum Surface Convection Heat Transfer Coefficient Value {W/m2-K}


!-   ===========  ALL OBJECTS IN CLASS: HEATBALANCESETTINGS:CONDUCTIONFINITEDIFFERENCE ===========

HeatBalanceSettings:ConductionFiniteDifference,
    FullyImplicitFirstOrder, !- Difference Scheme
    3,                       !- Space Discretization Constant
    1,                       !- Relaxation Factor
    0.01;                    !- Inside Face Surface Temperature Convergence Criteria


!-   ===========  ALL OBJECTS IN CLASS: TIMESTEP ===========

Timestep,
    20;                      !- Number of Timesteps per Hour


!-   ===========  ALL OBJECTS IN CLASS: CONVERGENCELIMITS ===========

ConvergenceLimits,
    60,                      !- Minimum System Timestep {minutes}
    60;                      !- Maximum HVAC Iterations


!-   ===========  ALL OBJECTS IN CLASS: PROGRAMCONTROL ===========

ProgramControl,
    1;                       !- Number of Threads Allowed


!-   ===========  ALL OBJECTS IN CLASS: SIZINGPERIOD:DESIGNDAY ===========

SizingPeriod:DesignDay,
    Baltimore Blt Washngtn IntL Ann Htg Wind 99% Condns WS=>MCDB,  !- Name
    1,                       !- Month
    21,                      !- Day of Month
    WinterDesignDay,         !- Day Type
    0.1,                     !- Maximum Dry-Bulb Temperature {C}
    0.0,                     !- Daily Dry-Bulb Temperature Range {deltaC}
    DefaultMultipliers,      !- Dry-Bulb Temperature Range Modifier Type
    ,                        !- Dry-Bulb Temperature Range Modifier Day Schedule Name
    Wetbulb,                 !- Humidity Condition Type
    0.1,                     !- Wetbulb or DewPoint at Maximum Dry-Bulb {C}
    ,                        !- Humidity Condition Day Schedule Name
    ,                        !- Humidity Ratio at Maximum Dry-Bulb {kgWater/kgDryAir}
    ,                        !- Enthalpy at Maximum Dry-Bulb {J/kg}
    ,                        !- Daily Wet-Bulb Temperature Range {deltaC}
    100786.,                 !- Barometric Pressure {Pa}
    10.8,                    !- Wind Speed {m/s}
    290,                     !- Wind Direction {deg}
    No,                      !- Rain Indicator
    No,                      !- Snow Indicator
    No,                      !- Daylight Saving Time Indicator
    ASHRAEClearSky,          !- Solar Model Indicator
    ,                        !- Beam Solar Day Schedule Name
    ,                        !- Diffuse Solar Day Schedule Name
    ,                        !- ASHRAE Clear Sky Optical Depth for Beam Irradiance (taub) {dimensionless}
    ,                        !- ASHRAE Clear Sky Optical Depth for Diffuse Irradiance (taud) {dimensionless}
    0.00;                    !- Sky Clearness

SizingPeriod:DesignDay,
    Baltimore Blt Washngtn IntL Ann Clg 1% Condns DB=>MWB,  !- Name
    7,                       !- Month
    21,                      !- Day of Month
    SummerDesignDay,         !- Day Type
    32.9,                    !- Maximum Dry-Bulb Temperature {C}
    10.4,                    !- Daily Dry-Bulb Temperature Range {deltaC}
    DefaultMultipliers,      !- Dry-Bulb Temperature Range Modifier Type
    ,                        !- Dry-Bulb Temperature Range Modifier Day Schedule Name
    Wetbulb,                 !- Humidity Condition Type
    23.5,                    !- Wetbulb or DewPoint at Maximum Dry-Bulb {C}
    ,                        !- Humidity Condition Day Schedule Name
    ,                        !- Humidity Ratio at Maximum Dry-Bulb {kgWater/kgDryAir}
    ,                        !- Enthalpy at Maximum Dry-Bulb {J/kg}
    ,                        !- Daily Wet-Bulb Temperature Range {deltaC}
    100786.,                 !- Barometric Pressure {Pa}
    4.6,                     !- Wind Speed {m/s}
    280,                     !- Wind Direction {deg}
    No,                      !- Rain Indicator
    No,                      !- Snow Indicator
    No,                      !- Daylight Saving Time Indicator
    ASHRAETau,               !- Solar Model Indicator
    ,                        !- Beam Solar Day Schedule Name
    ,                        !- Diffuse Solar Day Schedule Name
    0.552,                   !- ASHRAE Clear Sky Optical Depth for Beam Irradiance (taub) {dimensionless}
    1.769;                   !- ASHRAE Clear Sky Optical Depth for Diffuse Irradiance (taud) {dimensionless}


!-   ===========  ALL OBJECTS IN CLASS: RUNPERIOD ===========

RunPeriod,
    Annual,                  !- Name
    1,                       !- Begin Month
    1,                       !- Begin Day of Month
    12,                      !- End Month
    31,                      !- End Day of Month
    UseWeatherFile,          !- Day of Week for Start Day
    No,                      !- Use Weather File Holidays and Special Days
    Yes,                     !- Use Weather File Daylight Saving Period
    Yes,                     !- Apply Weekend Holiday Rule
    Yes,                     !- Use Weather File Rain Indicators
    Yes,                     !- Use Weather File Snow Indicators
    1;                       !- Number of Times Runperiod to be Repeated


!-   ===========  ALL OBJECTS IN CLASS: SCHEDULETYPELIMITS ===========

! Not limited
ScheduleTypeLimits,
    Any Number;              !- Name

ScheduleTypeLimits,
    Fraction,                !- Name
    0.0,                     !- Lower Limit Value
    1.0,                     !- Upper Limit Value
    CONTINUOUS;              !- Numeric Type

ScheduleTypeLimits,
    Temperature,             !- Name
    -60,                     !- Lower Limit Value
    200,                     !- Upper Limit Value
    CONTINUOUS;              !- Numeric Type

ScheduleTypeLimits,
    Control Type,            !- Name
    0,                       !- Lower Limit Value
    4,                       !- Upper Limit Value
    DISCRETE;                !- Numeric Type

ScheduleTypeLimits,
    On/Off,                  !- Name
    0,                       !- Lower Limit Value
    1,                       !- Upper Limit Value
    DISCRETE;                !- Numeric Type

!
! -------------------------------------------------------------
! New objects created from ExpandObjects
! -------------------------------------------------------------
!
ScheduleTypeLimits,
    HVACTemplate Any Number; !- Name


!-   ===========  ALL OBJECTS IN CLASS: SCHEDULE:COMPACT ===========

Schedule:Compact,
    On,                      !- Name
    Any Number,              !- Schedule Type Limits Name
    Through: 12/31,          !- Field 1
    For: AllDays,            !- Field 2
    Until: 24:00,            !- Field 3
    1;                       !- Field 4

Schedule:Compact,
    Zone Control Type Sched, !- Name
    Control Type,            !- Schedule Type Limits Name
    Through: 12/31,          !- Field 1
    For: SummerDesignDay,    !- Field 2
    Until: 24:00,            !- Field 3
    2,                       !- Field 4
    For: WinterDesignDay,    !- Field 5
    Until: 24:00,            !- Field 6
    1,                       !- Field 7
    For: AllOtherDays,       !- Field 8
    Until: 24:00,            !- Field 9
    4;                       !- Field 10

Schedule:Compact,
    Winter Design Setpoint,  !- Name
    Temperature,             !- Schedule Type Limits Name
    Through: 12/31,          !- Field 1
    For: AllDays,            !- Field 2
    Until: 24:00,            !- Field 3
    20;                      !- Field 4

Schedule:Compact,
    Summer Design Setpoint,  !- Name
    Temperature,             !- Schedule Type Limits Name
    Through: 12/31,          !- Field 1
    For: AllDays,            !- Field 2
    Until: 24:00,            !- Field 3
    25;                      !- Field 4

Schedule:Compact,
    BLDG_OCC_SCH_Gym,        !- Name
    Fraction,                !- Schedule Type Limits Name
    Through: 6/30,           !- Field 1
    For: Weekdays SummerDesignDay,  !- Field 2
    Until: 08:00,            !- Field 3
    0,                       !- Field 4
    Until: 16:00,            !- Field 5
    0.35,                    !- Field 6
    Until: 21:00,            !- Field 7
    0.95,                    !- Field 8
    Until: 24:00,            !- Field 9
    0,                       !- Field 10
    For: AllOtherDays,       !- Field 11
    Until: 24:00,            !- Field 12
    0,                       !- Field 13
    Through: 9/1,            !- Field 14
    For: Weekdays SummerDesignDay,  !- Field 15
    Until: 08:00,            !- Field 16
    0,                       !- Field 17
    Until: 16:00,            !- Field 18
    0.35,                    !- Field 19
    Until: 21:00,            !- Field 20
    0.35,                    !- Field 21
    Until: 24:00,            !- Field 22
    0,                       !- Field 23
    For: AllOtherDays,       !- Field 24
    Until: 24:00,            !- Field 25
    0,                       !- Field 26
    Through: 12/31,          !- Field 27
    For: Weekdays SummerDesignDay,  !- Field 28
    Until: 08:00,            !- Field 29
    0,                       !- Field 30
    Until: 16:00,            !- Field 31
    0.35,                    !- Field 32
    Until: 21:00,            !- Field 33
    0.95,                    !- Field 34
    Until: 24:00,            !- Field 35
    0,                       !- Field 36
    For: AllOtherDays,       !- Field 37
    Until: 24:00,            !- Field 38
    0;                       !- Field 39

Schedule:Compact,
    BLDG_OCC_SCH_Cafeteria,  !- Name
    Fraction,                !- Schedule Type Limits Name
    Through: 6/30,           !- Field 1
    For: Weekdays SummerDesignDay,  !- Field 2
    Until: 07:00,            !- Field 3
    0,                       !- Field 4
    Until: 09:00,            !- Field 5
    0.15,                    !- Field 6
    Until: 11:00,            !- Field 7
    0.05,                    !- Field 8
    Until: 13:00,            !- Field 9
    0.95,                    !- Field 10
    Until: 15:00,            !- Field 11
    0.15,                    !- Field 12
    Until: 24:00,            !- Field 13
    0,                       !- Field 14
    For: AllOtherDays,       !- Field 15
    Until: 24:00,            !- Field 16
    0,                       !- Field 17
    Through: 9/1,            !- Field 18
    For: Weekdays SummerDesignDay,  !- Field 19
    Until: 09:00,            !- Field 20
    0,                       !- Field 21
    Until: 15:00,            !- Field 22
    0.25,                    !- Field 23
    Until: 24:00,            !- Field 24
    0,                       !- Field 25
    For: AllOtherDays,       !- Field 26
    Until: 24:00,            !- Field 27
    0,                       !- Field 28
    Through: 12/31,          !- Field 29
    For: Weekdays SummerDesignDay,  !- Field 30
    Until: 07:00,            !- Field 31
    0,                       !- Field 32
    Until: 09:00,            !- Field 33
    0.15,                    !- Field 34
    Until: 11:00,            !- Field 35
    0.05,                    !- Field 36
    Until: 13:00,            !- Field 37
    0.95,                    !- Field 38
    Until: 15:00,            !- Field 39
    0.15,                    !- Field 40
    Until: 24:00,            !- Field 41
    0,                       !- Field 42
    For: AllOtherDays,       !- Field 43
    Until: 24:00,            !- Field 44
    0;                       !- Field 45

Schedule:Compact,
    BLDG_LIGHT_SCH,          !- Name
    Fraction,                !- Schedule Type Limits Name
    Through: 6/30,           !- Field 1
    For: Weekdays SummerDesignDay,  !- Field 2
    Until: 07:00,            !- Field 3
    0.1773,                  !- Field 4
    Until: 21:00,            !- Field 5
    0.9,                     !- Field 6
    Until: 24:00,            !- Field 7
    0.1773,                  !- Field 8
    For: AllOtherDays,       !- Field 9
    Until: 24:00,            !- Field 10
    0.1773,                  !- Field 11
    Through: 9/1,            !- Field 12
    For: Weekdays SummerDesignDay,  !- Field 13
    Until: 08:00,            !- Field 14
    0.1773,                  !- Field 15
    Until: 20:00,            !- Field 16
    0.5,                     !- Field 17
    Until: 24:00,            !- Field 18
    0.1773,                  !- Field 19
    For: AllOtherDays,       !- Field 20
    Until: 24:00,            !- Field 21
    0.1773,                  !- Field 22
    Through: 12/31,          !- Field 23
    For: Weekdays SummerDesignDay,  !- Field 24
    Until: 07:00,            !- Field 25
    0.1773,                  !- Field 26
    Until: 21:00,            !- Field 27
    0.9,                     !- Field 28
    Until: 24:00,            !- Field 29
    0.1773,                  !- Field 30
    For: AllOtherDays,       !- Field 31
    Until: 24:00,            !- Field 32
    0.1773;                  !- Field 33

Schedule:Compact,
    BLDG_OCC_SCH,            !- Name
    Fraction,                !- Schedule Type Limits Name
    Through: 6/30,           !- Field 1
    For: Weekdays SummerDesignDay,  !- Field 2
    Until: 08:00,            !- Field 3
    0,                       !- Field 4
    Until: 16:00,            !- Field 5
    0.75,                    !- Field 6
    Until: 21:00,            !- Field 7
    0.15,                    !- Field 8
    Until: 24:00,            !- Field 9
    0,                       !- Field 10
    For: AllOtherDays,       !- Field 11
    Until: 24:00,            !- Field 12
    0,                       !- Field 13
    Through: 9/1,            !- Field 14
    For: Weekdays SummerDesignDay,  !- Field 15
    Until: 08:00,            !- Field 16
    0,                       !- Field 17
    Until: 21:00,            !- Field 18
    0.15,                    !- Field 19
    Until: 24:00,            !- Field 20
    0,                       !- Field 21
    For: AllOtherDays,       !- Field 22
    Until: 24:00,            !- Field 23
    0,                       !- Field 24
    Through: 12/31,          !- Field 25
    For: Weekdays SummerDesignDay,  !- Field 26
    Until: 08:00,            !- Field 27
    0,                       !- Field 28
    Until: 16:00,            !- Field 29
    0.75,                    !- Field 30
    Until: 21:00,            !- Field 31
    0.15,                    !- Field 32
    Until: 24:00,            !- Field 33
    0,                       !- Field 34
    For: AllOtherDays,       !- Field 35
    Until: 24:00,            !- Field 36
    0;                       !- Field 37

Schedule:Compact,
    BLDG_EQUIP_SCH,          !- Name
    Fraction,                !- Schedule Type Limits Name
    Through: 6/30,           !- Field 1
    For: Weekdays SummerDesignDay,  !- Field 2
    Until: 08:00,            !- Field 3
    0.35,                    !- Field 4
    Until: 17:00,            !- Field 5
    0.95,                    !- Field 6
    Until: 24:00,            !- Field 7
    0.35,                    !- Field 8
    For: AllOtherDays,       !- Field 9
    Until: 24:00,            !- Field 10
    0.35,                    !- Field 11
    Through: 9/1,            !- Field 12
    For: Weekdays SummerDesignDay,  !- Field 13
    Until: 08:00,            !- Field 14
    0.25,                    !- Field 15
    Until: 17:00,            !- Field 16
    0.5,                     !- Field 17
    Until: 24:00,            !- Field 18
    0.25,                    !- Field 19
    For: AllOtherDays,       !- Field 20
    Until: 24:00,            !- Field 21
    0.25,                    !- Field 22
    Through: 12/31,          !- Field 23
    For: Weekdays SummerDesignDay,  !- Field 24
    Until: 08:00,            !- Field 25
    0.35,                    !- Field 26
    Until: 17:00,            !- Field 27
    0.95,                    !- Field 28
    Until: 24:00,            !- Field 29
    0.35,                    !- Field 30
    For: AllOtherDays,       !- Field 31
    Until: 24:00,            !- Field 32
    0.35;                    !- Field 33

Schedule:Compact,
    INFIL_SCH,               !- Name
    Fraction,                !- Schedule Type Limits Name
    Through: 12/31,          !- Field 1
    For: AllDays,            !- Field 2
    Until: 07:00,            !- Field 3
    1,                       !- Field 4
    Until: 21:00,            !- Field 5
    0.5,                     !- Field 6
    Until: 24:00,            !- Field 7
    1;                       !- Field 8

Schedule:Compact,
    KITCHEN_ELEC_EQUIP_SCH,  !- Name
    Fraction,                !- Schedule Type Limits Name
    Through: 6/30,           !- Field 1
    For: Weekdays SummerDesignDay,  !- Field 2
    Until: 08:00,            !- Field 3
    0.1,                     !- Field 4
    Until: 10:00,            !- Field 5
    0.15,                    !- Field 6
    Until: 13:00,            !- Field 7
    0.25,                    !- Field 8
    Until: 15:00,            !- Field 9
    0.15,                    !- Field 10
    Until: 24:00,            !- Field 11
    0.1,                     !- Field 12
    For: AllOtherDays,       !- Field 13
    Until: 24:00,            !- Field 14
    0.1,                     !- Field 15
    Through: 9/1,            !- Field 16
    For: Weekdays SummerDesignDay,  !- Field 17
    Until: 08:00,            !- Field 18
    0.1,                     !- Field 19
    Until: 10:00,            !- Field 20
    0.13,                    !- Field 21
    Until: 13:00,            !- Field 22
    0.20,                    !- Field 23
    Until: 15:00,            !- Field 24
    0.13,                    !- Field 25
    Until: 24:00,            !- Field 26
    0.1,                     !- Field 27
    For: AllOtherDays,       !- Field 28
    Until: 24:00,            !- Field 29
    0.1,                     !- Field 30
    Through: 12/31,          !- Field 31
    For: Weekdays SummerDesignDay,  !- Field 32
    Until: 08:00,            !- Field 33
    0.1,                     !- Field 34
    Until: 10:00,            !- Field 35
    0.15,                    !- Field 36
    Until: 13:00,            !- Field 37
    0.25,                    !- Field 38
    Until: 15:00,            !- Field 39
    0.15,                    !- Field 40
    Until: 24:00,            !- Field 41
    0.1,                     !- Field 42
    For: AllOtherDays,       !- Field 43
    Until: 24:00,            !- Field 44
    0.1;                     !- Field 45

Schedule:Compact,
    WORK_EFF_SCH,            !- Name
    Fraction,                !- Schedule Type Limits Name
    Through: 12/31,          !- Field 1
    For: AllDays,            !- Field 2
    Until: 24:00,            !- Field 3
    0;                       !- Field 4

Schedule:Compact,
    ACTIVITY_SCH,            !- Name
    Any Number,              !- Schedule Type Limits Name
    Through: 12/31,          !- Field 1
    For: AllDays,            !- Field 2
    Until: 24:00,            !- Field 3
    120;                     !- Field 4

Schedule:Compact,
    AIR_VELO_SCH,            !- Name
    Any Number,              !- Schedule Type Limits Name
    Through: 12/31,          !- Field 1
    For: AllDays,            !- Field 2
    Until: 24:00,            !- Field 3
    0.2;                     !- Field 4

Schedule:Compact,
    CLGSETP_SCH,             !- Name
    Temperature,             !- Schedule Type Limits Name
    Through: 6/30,           !- Field 1
    For: SummerDesignDay,    !- Field 2
    Until: 24:00,            !- Field 3
    24,                      !- Field 4
    For: WeekEnds Holidays WinterDesignDay,  !- Field 5
    Until: 24:00,            !- Field 6
    27,                      !- Field 7
    For: AllOtherDays,       !- Field 8
    Until: 06:00,            !- Field 9
    27,                      !- Field 10
    Until: 21:00,            !- Field 11
    24,                      !- Field 12
    Until: 24:00,            !- Field 13
    27,                      !- Field 14
    Through: 9/1,            !- Field 15
    For: SummerDesignDay,    !- Field 16
    Until: 24:00,            !- Field 17
    24,                      !- Field 18
    For: WeekEnds Holidays WinterDesignDay,  !- Field 19
    Until: 24:00,            !- Field 20
    27,                      !- Field 21
    For: AllOtherDays,       !- Field 22
    Until: 07:00,            !- Field 23
    27,                      !- Field 24
    Until: 18:00,            !- Field 25
    24,                      !- Field 26
    Until: 24:00,            !- Field 27
    27,                      !- Field 28
    Through: 12/31,          !- Field 29
    For: SummerDesignDay,    !- Field 30
    Until: 24:00,            !- Field 31
    24,                      !- Field 32
    For: WeekEnds Holidays WinterDesignDay,  !- Field 33
    Until: 24:00,            !- Field 34
    27,                      !- Field 35
    For: AllOtherDays,       !- Field 36
    Until: 06:00,            !- Field 37
    27,                      !- Field 38
    Until: 21:00,            !- Field 39
    24,                      !- Field 40
    Until: 24:00,            !- Field 41
    27;                      !- Field 42

Schedule:Compact,
    HTGSETP_SCH,             !- Name
    Temperature,             !- Schedule Type Limits Name
    Through: 6/30,           !- Field 1
    For: WinterDesignDay,    !- Field 2
    Until: 24:00,            !- Field 3
    21,                      !- Field 4
    For: WeekEnds Holidays SummerDesignDay,  !- Field 5
    Until: 24:00,            !- Field 6
    16,                      !- Field 7
    For: AllOtherDays,       !- Field 8
    Until: 06:00,            !- Field 9
    16,                      !- Field 10
    Until: 21:00,            !- Field 11
    21,                      !- Field 12
    Until: 24:00,            !- Field 13
    16,                      !- Field 14
    Through: 9/1,            !- Field 15
    For: WinterDesignDay,    !- Field 16
    Until: 24:00,            !- Field 17
    21,                      !- Field 18
    For: WeekEnds Holidays SummerDesignDay,  !- Field 19
    Until: 24:00,            !- Field 20
    16,                      !- Field 21
    For: AllOtherDays,       !- Field 22
    Until: 07:00,            !- Field 23
    16,                      !- Field 24
    Until: 18:00,            !- Field 25
    21,                      !- Field 26
    Until: 24:00,            !- Field 27
    16,                      !- Field 28
    Through: 12/31,          !- Field 29
    For: WinterDesignDay,    !- Field 30
    Until: 24:00,            !- Field 31
    21,                      !- Field 32
    For: WeekEnds Holidays SummerDesignDay,  !- Field 33
    Until: 24:00,            !- Field 34
    16,                      !- Field 35
    For: AllOtherDays,       !- Field 36
    Until: 06:00,            !- Field 37
    16,                      !- Field 38
    Until: 21:00,            !- Field 39
    21,                      !- Field 40
    Until: 24:00,            !- Field 41
    16;                      !- Field 42


!-   ===========  ALL OBJECTS IN CLASS: MATERIAL ===========

Material,
    Ceiling Tiles,           !- Name
    Rough,                   !- Roughness
    0.0008,                  !- Thickness {m}
    0.0560,                  !- Conductivity {W/m-K}
    380.00,                  !- Density {kg/m3}
    1000.00,                 !- Specific Heat {J/kg-K}
    0.9,                     !- Thermal Absorptance
    0.50,                    !- Solar Absorptance
    0.50;                    !- Visible Absorptance

Material,
    Gypsum,                  !- Name
    Smooth,                  !- Roughness
    0.01271,                 !- Thickness {m}
    0.16,                    !- Conductivity {W/m-K}
    784.9,                   !- Density {kg/m3}
    830,                     !- Specific Heat {J/kg-K}
    0.9,                     !- Thermal Absorptance
    0.92,                    !- Solar Absorptance
    0.92;                    !- Visible Absorptance

Material,
    BioPCM®M27Q23,           !- Name
    VeryRough,               !- Roughness
    0.0075,                  !- Thickness {m}
    0.2,                     !- Conductivity {W/m-K}
    235,                     !- Density {kg/m3}
    1970,                    !- Specific Heat {J/kg-K}
    0.9,                     !- Thermal Absorptance
    0.1,                     !- Solar Absorptance
    0.5;                     !- Visible Absorptance

Material,
    BioPCM®M51Q23,           !- Name
    VeryRough,               !- Roughness
    0.0125,                  !- Thickness {m}
    0.2,                     !- Conductivity {W/m-K}
    235,                     !- Density {kg/m3}
    1970,                    !- Specific Heat {J/kg-K}
    0.9,                     !- Thermal Absorptance
    0.1,                     !- Solar Absorptance
    0.5;                     !- Visible Absorptance

Material,
    BioPCM®M27Q25,           !- Name
    VeryRough,               !- Roughness
    0.0075,                  !- Thickness {m}
    0.2,                     !- Conductivity {W/m-K}
    235,                     !- Density {kg/m3}
    1970,                    !- Specific Heat {J/kg-K}
    0.9,                     !- Thermal Absorptance
    0.1,                     !- Solar Absorptance
    0.5;                     !- Visible Absorptance

Material,
    BioPCM®M51Q25,           !- Name
    VeryRough,               !- Roughness
    0.0125,                  !- Thickness {m}
    0.2,                     !- Conductivity {W/m-K}
    235,                     !- Density {kg/m3}
    1970,                    !- Specific Heat {J/kg-K}
    0.9,                     !- Thermal Absorptance
    0.1,                     !- Solar Absorptance
    0.5;                     !- Visible Absorptance

Material,
    BioPCM®M27Q27,           !- Name
    VeryRough,               !- Roughness
    0.0075,                  !- Thickness {m}
    0.2,                     !- Conductivity {W/m-K}
    235,                     !- Density {kg/m3}
    1970,                    !- Specific Heat {J/kg-K}
    0.9,                     !- Thermal Absorptance
    0.1,                     !- Solar Absorptance
    0.5;                     !- Visible Absorptance

Material,
    BioPCM®M51Q27,           !- Name
    VeryRough,               !- Roughness
    0.0125,                  !- Thickness {m}
    0.2,                     !- Conductivity {W/m-K}
    235,                     !- Density {kg/m3}
    1970,                    !- Specific Heat {J/kg-K}
    0.9,                     !- Thermal Absorptance
    0.1,                     !- Solar Absorptance
    0.5;                     !- Visible Absorptance

Material,
    PVC Roofing MembraneLowSlopeRoof_SRI78,  !- Name
    MediumSmooth,            !- Roughness
    0.001524,                !- Thickness {m}
    0.063,                   !- Conductivity {W/m-K}
    290,                     !- Density {kg/m3}
    1300,                    !- Specific Heat {J/kg-K}
    0.2,                     !- Thermal Absorptance
    0.44;                    !- Solar Absorptance

Material,
    StandingSeamSteepSlopeRoof_29-SRI,  !- Name
    MediumSmooth,            !- Roughness
    0.001524,                !- Thickness {m}
    0.063,                   !- Conductivity {W/m-K}
    290,                     !- Density {kg/m3}
    1300,                    !- Specific Heat {J/kg-K}
    0.67,                    !- Thermal Absorptance
    0.66;                    !- Solar Absorptance

Material,
    PVC Roofing MembraneLowSlopeRoof_SRI85,  !- Name