!-Generator IDFEditor 1.44
!-Option SortedOrder

!-NOTE: All comments with '!-' are ignored by the IDFEditor and are generated automatically.
!-      Use '!' comments if they need to be retained when using the IDFEditor.


!-   ===========  ALL OBJECTS IN CLASS: MATERIAL ===========

Material,
    M27Q21,         !- Name
    VeryRough,               !- Roughness
    0.011,                   !- Thickness {m}
    0.2,                     !- Conductivity {W/m-K}
    235,                     !- Density {kg/m3}
    1970,                    !- Specific Heat {J/kg-K}
    0.9,                     !- Thermal Absorptance
    0.1,                     !- Solar Absorptance
    0.5;                     !- Visible Absorptance

Material,
    M51Q21,         !- Name
    VeryRough,               !- Roughness
    0.020828,                !- Thickness {m}
    0.2,                     !- Conductivity {W/m-K}
    235,                     !- Density {kg/m3}
    1970,                    !- Specific Heat {J/kg-K}
    0.9,                     !- Thermal Absorptance
    0.1,                     !- Solar Absorptance
    0.5;                     !- Visible Absorptance

Material,
    M91Q21,         !- Name
    VeryRough,               !- Roughness
    0.037084,                !- Thickness {m}
    0.2,                     !- Conductivity {W/m-K}
    235,                     !- Density {kg/m3}
    1970,                    !- Specific Heat {J/kg-K}
    0.9,                     !- Thermal Absorptance
    0.1,                     !- Solar Absorptance
    0.5;                     !- Visible Absorptance

Material,
    M27Q23,         !- Name
    VeryRough,               !- Roughness
    0.011,                   !- Thickness {m}
    0.2,                     !- Conductivity {W/m-K}
    235,                     !- Density {kg/m3}
    1970,                    !- Specific Heat {J/kg-K}
    0.9,                     !- Thermal Absorptance
    0.1,                     !- Solar Absorptance
    0.5;                     !- Visible Absorptance

Material,
    M51Q23,         !- Name
    VeryRough,               !- Roughness
    0.020828,                !- Thickness {m}
    0.2,                     !- Conductivity {W/m-K}
    235,                     !- Density {kg/m3}
    1970,                    !- Specific Heat {J/kg-K}
    0.9,                     !- Thermal Absorptance
    0.1,                     !- Solar Absorptance
    0.5;                     !- Visible Absorptance

Material,
    M91Q23,         !- Name
    VeryRough,               !- Roughness
    0.037084,                !- Thickness {m}
    0.2,                     !- Conductivity {W/m-K}
    235,                     !- Density {kg/m3}
    1970,                    !- Specific Heat {J/kg-K}
    0.9,                     !- Thermal Absorptance
    0.1,                     !- Solar Absorptance
    0.5;                     !- Visible Absorptance

Material,
    M27Q25,         !- Name
    VeryRough,               !- Roughness
    0.011,                   !- Thickness {m}
    0.2,                     !- Conductivity {W/m-K}
    235,                     !- Density {kg/m3}
    1970,                    !- Specific Heat {J/kg-K}
    0.9,                     !- Thermal Absorptance
    0.1,                     !- Solar Absorptance
    0.5;                     !- Visible Absorptance

Material,
    M51Q25,         !- Name
    VeryRough,               !- Roughness
    0.020828,                !- Thickness {m}
    0.2,                     !- Conductivity {W/m-K}
    235,                     !- Density {kg/m3}
    1970,                    !- Specific Heat {J/kg-K}
    0.9,                     !- Thermal Absorptance
    0.1,                     !- Solar Absorptance
    0.5;                     !- Visible Absorptance

Material,
    M91Q25,         !- Name
    VeryRough,               !- Roughness
    0.037084,                !- Thickness {m}
    0.2,                     !- Conductivity {W/m-K}
    235,                     !- Density {kg/m3}
    1970,                    !- Specific Heat {J/kg-K}
    0.9,                     !- Thermal Absorptance
    0.1,                     !- Solar Absorptance
    0.5;                     !- Visible Absorptance

Material,
    M27Q27,         !- Name
    VeryRough,               !- Roughness
    0.011,                   !- Thickness {m}
    0.2,                     !- Conductivity {W/m-K}
    235,                     !- Density {kg/m3}
    1970,                    !- Specific Heat {J/kg-K}
    0.9,                     !- Thermal Absorptance
    0.1,                     !- Solar Absorptance
    0.5;                     !- Visible Absorptance

Material,
    M51Q27,         !- Name
    VeryRough,               !- Roughness
    0.020828,                !- Thickness {m}
    0.2,                     !- Conductivity {W/m-K}
    235,                     !- Density {kg/m3}
    1970,                    !- Specific Heat {J/kg-K}
    0.9,                     !- Thermal Absorptance
    0.1,                     !- Solar Absorptance
    0.5;                     !- Visible Absorptance

Material,
    M91Q27,         !- Name
    VeryRough,               !- Roughness
    0.037084,                !- Thickness {m}
    0.2,                     !- Conductivity {W/m-K}
    235,                     !- Density {kg/m3}
    1970,                    !- Specific Heat {J/kg-K}
    0.9,                     !- Thermal Absorptance
    0.1,                     !- Solar Absorptance
    0.5;                     !- Visible Absorptance

Material,
    M27Q29,         !- Name
    VeryRough,               !- Roughness
    0.011,                   !- Thickness {m}
    0.2,                     !- Conductivity {W/m-K}
    235,                     !- Density {kg/m3}
    1970,                    !- Specific Heat {J/kg-K}
    0.9,                     !- Thermal Absorptance
    0.1,                     !- Solar Absorptance
    0.5;                     !- Visible Absorptance

Material,
    M51Q29,         !- Name
    VeryRough,               !- Roughness
    0.020828,                !- Thickness {m}
    0.2,                     !- Conductivity {W/m-K}
    235,                     !- Density {kg/m3}
    1970,                    !- Specific Heat {J/kg-K}
    0.9,                     !- Thermal Absorptance
    0.1,                     !- Solar Absorptance
    0.5;                     !- Visible Absorptance

Material,
    M91Q29,         !- Name
    VeryRough,               !- Roughness
    0.037084,                !- Thickness {m}
    0.2,                     !- Conductivity {W/m-K}
    235,                     !- Density {kg/m3}
    1970,                    !- Specific Heat {J/kg-K}
    0.9,                     !- Thermal Absorptance
    0.1,                     !- Solar Absorptance
    0.5;                     !- Visible Absorptance

Material,
    Roof Insulation: Batt,   !- Name
    VeryRough,               !- Roughness
    0.1049,                  !- Thickness {m}
    0.05,                    !- Conductivity {W/m-K}
    19,                      !- Density {kg/m3}
    960,                     !- Specific Heat {J/kg-K}
    0.9,                     !- Thermal Absorptance
    0.7,                     !- Solar Absorptance
    0.7;                     !- Visible Absorptance


Material,
    Insulation: Expanded polystyrene,  !- Name
    VeryRough,               !- Roughness
    0.08,                    !- Thickness {m}
    0.037,                   !- Conductivity {W/m-K}
    16,                      !- Density {kg/m3}
    1210,                    !- Specific Heat {J/kg-K}
    0.9,                     !- Thermal Absorptance
    0.7,                     !- Solar Absorptance
    0.7;                     !- Visible Absorptance

Material,
    Insulation: Expanded rubber (rigid),  !- Name
    MediumRough,             !- Roughness
    0.07,                    !- Thickness {m}
    0.032,                   !- Conductivity {W/m-K}
    72,                      !- Density {kg/m3}
    1680,                    !- Specific Heat {J/kg-K}
    0.9,                     !- Thermal Absorptance
    0.7,                     !- Solar Absorptance
    0.7;                     !- Visible Absorptance

Material,
    Insulation: Glass Fiber, !- Name
    MediumRough,             !- Roughness
    0.075,                   !- Thickness {m}
    0.036,                   !- Conductivity {W/m-K}
    140,                     !- Density {kg/m3}
    960,                     !- Specific Heat {J/kg-K}
    0.9,                     !- Thermal Absorptance
    0.7,                     !- Solar Absorptance
    0.7;                     !- Visible Absorptance

Material,
    Insulation: Expanded perlite,  !- Name
    MediumSmooth,            !- Roughness
    0.11,                    !- Thickness {m}
    0.052,                   !- Conductivity {W/m-K}
    16,                      !- Density {kg/m3}
    1260,                    !- Specific Heat {J/kg-K}
    0.9,                     !- Thermal Absorptance
    0.7,                     !- Solar Absorptance
    0.7;                     !- Visible Absorptance

Material,
    Insulation: Cellular Glass,  !- Name
    MediumRough,             !- Roughness
    0.11,                    !- Thickness {m}
    0.05,                    !- Conductivity {W/m-K}
    136,                     !- Density {kg/m3}
    750,                     !- Specific Heat {J/kg-K}
    0.9,                     !- Thermal Absorptance
    0.7,                     !- Solar Absorptance
    0.7;                     !- Visible Absorptance

Material,
    Insulation: Cellular polyurethane/polyisocyanurate (unfaced),  !- Name
    Rough,                   !- Roughness
    0.05,                    !- Thickness {m}
    0.0245,                  !- Conductivity {W/m-K}
    24,                      !- Density {kg/m3}
    1590,                    !- Specific Heat {J/kg-K}
    0.9,                     !- Thermal Absorptance
    0.7,                     !- Solar Absorptance
    0.7;                     !- Visible Absorptance

Material,
    Insulation: Cellular polyisocyanurate(gaspermeable facers),  !- Name
    Rough,                   !- Roughness
    0.05,                    !- Thickness {m}
    0.0245,                  !- Conductivity {W/m-K}
    32,                      !- Density {kg/m3}
    920,                     !- Specific Heat {J/kg-K}
    0.9,                     !- Thermal Absorptance
    0.7,                     !- Solar Absorptance
    0.7;                     !- Visible Absorptance

Material,
    Insulation: Cellular polyisocyanurate(gasimpermeable facers),  !- Name
    Rough,                   !- Roughness
    0.042,                   !- Thickness {m}
    0.02,                    !- Conductivity {W/m-K}
    32,                      !- Density {kg/m3}
    920,                     !- Specific Heat {J/kg-K}
    0.9,                     !- Thermal Absorptance
    0.7,                     !- Solar Absorptance
    0.7;                     !- Visible Absorptance

Material,
    Insulation: Board,       !- Name
    MediumRough,             !- Roughness
    0.065,                   !- Thickness {m}
    0.03,                    !- Conductivity {W/m-K}
    43,                      !- Density {kg/m3}
    1210,                    !- Specific Heat {J/kg-K}
    0.9,                     !- Thermal Absorptance
    0.7,                     !- Solar Absorptance
    0.7;                     !- Visible Absorptance

Material,
    Insulation: Batt,        !- Name
    VeryRough,               !- Roughness
    0.11,                    !- Thickness {m}
    0.05,                    !- Conductivity {W/m-K}
    19,                      !- Density {kg/m3}
    960,                     !- Specific Heat {J/kg-K}
    0.9,                     !- Thermal Absorptance
    0.7,                     !- Solar Absorptance
    0.7;                     !- Visible Absorptance

Material,
    Asphalt Shingles,        !- Name
    VeryRough,               !- Roughness
    0.0032,                  !- Thickness {m}
    0.04,                    !- Conductivity {W/m-K}
    1120,                    !- Density {kg/m3}
    1260,                    !- Specific Heat {J/kg-K}
    0.9,                     !- Thermal Absorptance
    0.7,                     !- Solar Absorptance
    0.7;                     !- Visible Absorptance

Material,
    Wood Shingles,           !- Name
    VeryRough,               !- Roughness
    0.0064,                  !- Thickness {m}
    0.04,                    !- Conductivity {W/m-K}
    592,                     !- Density {kg/m3}
    1300,                    !- Specific Heat {J/kg-K}
    0.9,                     !- Thermal Absorptance
    0.7,                     !- Solar Absorptance
    0.7;                     !- Visible Absorptance

Material,
    Acoustic Tile,           !- Name
    MediumSmooth,            !- Roughness
    0.0191,                  !- Thickness {m}
    0.06,                    !- Conductivity {W/m-K}
    368,                     !- Density {kg/m3}
    590,                     !- Specific Heat {J/kg-K}
    0.9,                     !- Thermal Absorptance
    0.7,                     !- Solar Absorptance
    0.7;                     !- Visible Absorptance

Material,
    Gypsum Board,            !- Name
    MediumSmooth,            !- Roughness
    0.0159,                  !- Thickness {m}
    0.16,                    !- Conductivity {W/m-K}
    800,                     !- Density {kg/m3}
    1090,                    !- Specific Heat {J/kg-K}
    0.9,                     !- Thermal Absorptance
    0.7,                     !- Solar Absorptance
    0.7;                     !- Visible Absorptance

Material,
    Plaster Board,           !- Name
    MediumSmooth,            !- Roughness
    0.0027,                  !- Thickness {m}
    0.58,                    !- Conductivity {W/m-K}
    800,                     !- Density {kg/m3}
    1090,                    !- Specific Heat {J/kg-K}
    0.9,                     !- Thermal Absorptance
    0.7,                     !- Solar Absorptance
    0.7;                     !- Visible Absorptance

Material,
    Sheathing,               !- Name
    Smooth,                  !- Roughness
    0.0127,                  !- Thickness {m}
    0.055,                   !- Conductivity {W/m-K}
    290,                     !- Density {kg/m3}
    1300,                    !- Specific Heat {J/kg-K}
    0.9,                     !- Thermal Absorptance
    0.7,                     !- Solar Absorptance
    0.7;                     !- Visible Absorptance

Material,
    Nail-Base Sheathing,     !- Name
    Smooth,                  !- Roughness
    0.0127,                  !- Thickness {m}
    0.057,                   !- Conductivity {W/m-K}
    400,                     !- Density {kg/m3}
    1300,                    !- Specific Heat {J/kg-K}
    0.9,                     !- Thermal Absorptance
    0.7,                     !- Solar Absorptance
    0.7;                     !- Visible Absorptance

Material,
    Shingle Backer,          !- Name
    Smooth,                  !- Roughness
    0.0079,                  !- Thickness {m}
    0.063,                   !- Conductivity {W/m-K}
    290,                     !- Density {kg/m3}
    1300,                    !- Specific Heat {J/kg-K}
    0.9,                     !- Thermal Absorptance
    0.7,                     !- Solar Absorptance
    0.7;                     !- Visible Absorptance

Material,
    Sound Deadening Board,   !- Name
    Smooth,                  !- Roughness
    0.0127,                  !- Thickness {m}
    0.063,                   !- Conductivity {W/m-K}
    240,                     !- Density {kg/m3}
    1260,                    !- Specific Heat {J/kg-K}
    0.9,                     !- Thermal Absorptance
    0.7,                     !- Solar Absorptance
    0.7;                     !- Visible Absorptance

Material,
    Laminated paperboard,    !- Name
    MediumSmooth,            !- Roughness
    0.0032,                  !- Thickness {m}
    0.072,                   !- Conductivity {W/m-K}
    480,                     !- Density {kg/m3}
    1380,                    !- Specific Heat {J/kg-K}
    0.9,                     !- Thermal Absorptance
    0.7,                     !- Solar Absorptance
    0.7;                     !- Visible Absorptance

Material,
    Homogeneous Repulped Paper Board,  !- Name
    MediumSmooth,            !- Roughness
    0.0032,                  !- Thickness {m}
    0.072,                   !- Conductivity {W/m-K}
    480,                     !- Density {kg/m3}
    1170,                    !- Specific Heat {J/kg-K}
    0.9,                     !- Thermal Absorptance
    0.7,                     !- Solar Absorptance
    0.7;                     !- Visible Absorptance

Material,
    Hardboard,               !- Name
    Smooth,                  !- Roughness
    0.019,                   !- Thickness {m}
    0.82,                    !- Conductivity {W/m-K}
    880,                     !- Density {kg/m3}
    1340,                    !- Specific Heat {J/kg-K}
    0.9,                     !- Thermal Absorptance
    0.7,                     !- Solar Absorptance
    0.7;                     !- Visible Absorptance

Material,
    Particleboard Underlayment,  !- Name
    MediumRough,             !- Roughness
    0.0159,                  !- Thickness {m}
    0.311,                   !- Conductivity {W/m-K}
    640,                     !- Density {kg/m3}
    1210,                    !- Specific Heat {J/kg-K}
    0.9,                     !- Thermal Absorptance
    0.7,                     !- Solar Absorptance
    0.7;                     !- Visible Absorptance

Material,
    Waferboard,              !- Name
    MediumSmooth,            !- Roughness
    0.019,                   !- Thickness {m}
    0.091,                   !- Conductivity {W/m-K}
    590,                     !- Density {kg/m3}
    1300,                    !- Specific Heat {J/kg-K}
    0.9,                     !- Thermal Absorptance
    0.7,                     !- Solar Absorptance
    0.7;                     !- Visible Absorptance

Material,
    Built-up roofing,        !- Name
    Rough,                   !- Roughness
    0.0095,                  !- Thickness {m}
    0.16,                    !- Conductivity {W/m-K}
    1120,                    !- Density {kg/m3}
    1460,                    !- Specific Heat {J/kg-K}
    0.9,                     !- Thermal Absorptance
    0.7,                     !- Solar Absorptance
    0.7;                     !- Visible Absorptance

Material,
    Fiberboard sheathing,    !- Name
    Smooth,                  !- Roughness
    0.0127,                  !- Thickness {m}
    0.07,                    !- Conductivity {W/m-K}
    400,                     !- Density {kg/m3}
    1300,                    !- Specific Heat {J/kg-K}
    0.9,                     !- Thermal Absorptance
    0.7,                     !- Solar Absorptance
    0.7;                     !- Visible Absorptance

Material,
    CeilingTiles,            !- Name
    Rough,                   !- Roughness
    0.0008,                  !- Thickness {m}
    0.0560,                  !- Conductivity {W/m-K}
    380.00,                  !- Density {kg/m3}
    1000.00,                 !- Specific Heat {J/kg-K}
    0.9,                     !- Thermal Absorptance
    0.7,                     !- Solar Absorptance
    0.7;                     !- Visible Absorptance

Material,
    Opaque Spandrel Glass,   !- Name
    Smooth,                  !- Roughness
    0.0064,                  !- Thickness {m}
    0.99,                    !- Conductivity {W/m-K}
    2528,                    !- Density {kg/m3}
    880,                     !- Specific Heat {J/kg-K}
    0.9,                     !- Thermal Absorptance
    0.7,                     !- Solar Absorptance
    0.7;                     !- Visible Absorptance

Material,
    FloorTile,               !- Name
    MediumSmooth,            !- Roughness
    0.0127,                  !- Thickness {m}
    0.057,                   !- Conductivity {W/m-K}
    700,                     !- Density {kg/m3}
    590,                     !- Specific Heat {J/kg-K}
    0.9,                     !- Thermal Absorptance
    0.7,                     !- Solar Absorptance
    0.7;                     !- Visible Absorptance

Material,
    Canvas,                  !- Name
    MediumRough,             !- Roughness
    0.00254,                 !- Thickness {m}
    0.06,                    !- Conductivity {W/m-K}
    288,                     !- Density {kg/m3}
    1380,                    !- Specific Heat {J/kg-K}
    0.9,                     !- Thermal Absorptance
    0.72,                    !- Solar Absorptance
    0.72;                    !- Visible Absorptance

Material,
    Plastic,                 !- Name
    Rough,                   !- Roughness
    0.04445,                 !- Thickness {m}
    0.4999414,               !- Conductivity {W/m-K}
    979.99935926187,         !- Density {kg/m3}
    1799.9998952,            !- Specific Heat {J/kg-K}
    0.9,                     !- Thermal Absorptance
    0.7,                     !- Solar Absorptance
    0.7;                     !- Visible Absorptance

Material,
    Wood Siding,             !- Name
    MediumSmooth,            !- Roughness
    0.0127,                  !- Thickness {m}
    0.09,                    !- Conductivity {W/m-K}
    592,                     !- Density {kg/m3}
    1170,                    !- Specific Heat {J/kg-K}
    0.9,                     !- Thermal Absorptance
    0.7,                     !- Solar Absorptance
    0.7;                     !- Visible Absorptance

Material,
    Plywood,                 !- Name
    Smooth,                  !- Roughness
    0.0159,                  !- Thickness {m}
    0.12,                    !- Conductivity {W/m-K}
    544,                     !- Density {kg/m3}
    1210,                    !- Specific Heat {J/kg-K}
    0.9,                     !- Thermal Absorptance
    0.7,                     !- Solar Absorptance
    0.7;                     !- Visible Absorptance

Material,
    Particleboard,           !- Name
    MediumSmooth,            !- Roughness
    0.019,                   !- Thickness {m}
    0.135,                   !- Conductivity {W/m-K}
    800,                     !- Density {kg/m3}
    1300,                    !- Specific Heat {J/kg-K}
    0.9,                     !- Thermal Absorptance
    0.7,                     !- Solar Absorptance
    0.7;                     !- Visible Absorptance

Material,
    Wood Subfloor,           !- Name
    MediumSmooth,            !- Roughness
    0.019,                   !- Thickness {m}
    0.115,                   !- Conductivity {W/m-K}
    800,                     !- Density {kg/m3}
    1380,                    !- Specific Heat {J/kg-K}
    0.9,                     !- Thermal Absorptance
    0.7,                     !- Solar Absorptance
    0.7;                     !- Visible Absorptance

Material,
    Hardwood,                !- Name
    MediumSmooth,            !- Roughness
    0.0129,                  !- Thickness {m}
    0.167,                   !- Conductivity {W/m-K}
    680,                     !- Density {kg/m3}
    1630,                    !- Specific Heat {J/kg-K}
    0.9,                     !- Thermal Absorptance
    0.7,                     !- Solar Absorptance
    0.7;                     !- Visible Absorptance

Material,
    Oak,                     !- Name
    MediumSmooth,            !- Roughness
    0.025,                   !- Thickness {m}
    0.17,                    !- Conductivity {W/m-K}
    704,                     !- Density {kg/m3}
    1630,                    !- Specific Heat {J/kg-K}
    0.9,                     !- Thermal Absorptance
    0.7,                     !- Solar Absorptance
    0.7;                     !- Visible Absorptance

Material,
    Birch,                   !- Name
    MediumSmooth,            !- Roughness
    0.025,                   !- Thickness {m}
    0.172,                   !- Conductivity {W/m-K}
    704,                     !- Density {kg/m3}
    1630,                    !- Specific Heat {J/kg-K}
    0.9,                     !- Thermal Absorptance
    0.7,                     !- Solar Absorptance
    0.7;                     !- Visible Absorptance

Material,
    Maple,                   !- Name
    MediumSmooth,            !- Roughness
    0.025,                   !- Thickness {m}
    0.164,                   !- Conductivity {W/m-K}
    671,                     !- Density {kg/m3}
    1630,                    !- Specific Heat {J/kg-K}
    0.9,                     !- Thermal Absorptance
    0.7,                     !- Solar Absorptance
    0.7;                     !- Visible Absorptance

Material,
    Ash,                     !- Name
    MediumSmooth,            !- Roughness
    0.025,                   !- Thickness {m}
    0.159,                   !- Conductivity {W/m-K}
    642,                     !- Density {kg/m3}
    1630,                    !- Specific Heat {J/kg-K}
    0.9,                     !- Thermal Absorptance
    0.7,                     !- Solar Absorptance
    0.7;                     !- Visible Absorptance

Material,
    Softwood,                !- Name
    MediumSmooth,            !- Roughness
    0.0129,                  !- Thickness {m}
    0.129,                   !- Conductivity {W/m-K}
    496,                     !- Density {kg/m3}
    1630,                    !- Specific Heat {J/kg-K}
    0.9,                     !- Thermal Absorptance
    0.7,                     !- Solar Absorptance
    0.7;                     !- Visible Absorptance

Material,
    Southern Pine,           !- Name
    MediumSmooth,            !- Roughness
    0.025,                   !- Thickness {m}
    0.153,                   !- Conductivity {W/m-K}
    615,                     !- Density {kg/m3}
    1630,                    !- Specific Heat {J/kg-K}
    0.9,                     !- Thermal Absorptance
    0.7,                     !- Solar Absorptance
    0.7;                     !- Visible Absorptance

Material,
    Douglas Fir-Larch,       !- Name
    MediumSmooth,            !- Roughness
    0.025,                   !- Thickness {m}
    0.141,                   !- Conductivity {W/m-K}
    559,                     !- Density {kg/m3}
    1630,                    !- Specific Heat {J/kg-K}
    0.9,                     !- Thermal Absorptance
    0.7,                     !- Solar Absorptance
    0.7;                     !- Visible Absorptance

Material,
    Southern Cypress,        !- Name
    MediumSmooth,            !- Roughness
    0.025,                   !- Thickness {m}
    0.131,                   !- Conductivity {W/m-K}
    508,                     !- Density {kg/m3}
    1630,                    !- Specific Heat {J/kg-K}
    0.9,                     !- Thermal Absorptance
    0.7,                     !- Solar Absorptance
    0.7;                     !- Visible Absorptance

Material,
    Hem Fir Spruce Pine Fir, !- Name
    MediumSmooth,            !- Roughness
    0.025,                   !- Thickness {m}
    0.119,                   !- Conductivity {W/m-K}
    447,                     !- Density {kg/m3}
    1630,                    !- Specific Heat {J/kg-K}
    0.9,                     !- Thermal Absorptance
    0.7,                     !- Solar Absorptance
    0.7;                     !- Visible Absorptance

Material,
    West Coast Woods  Cedars,!- Name
    MediumSmooth,            !- Roughness
    0.025,                   !- Thickness {m}
    0.114,                   !- Conductivity {W/m-K}
    425,                     !- Density {kg/m3}
    1630,                    !- Specific Heat {J/kg-K}
    0.9,                     !- Thermal Absorptance
    0.7,                     !- Solar Absorptance
    0.7;                     !- Visible Absorptance

Material,
    Hardwood Floor,          !- Name
    MediumSmooth,            !- Roughness
    0.0129,                  !- Thickness {m}
    0.167,                   !- Conductivity {W/m-K}
    680,                     !- Density {kg/m3}
    1630,                    !- Specific Heat {J/kg-K}
    0.9,                     !- Thermal Absorptance
    0.7,                     !- Solar Absorptance
    0.7;                     !- Visible Absorptance

Material,
    Concrete_MassWallMinHeatCapacity,  !- Name
    MediumRough,             !- Roughness
    0.1,                     !- Thickness {m}
    1.7296,                  !- Conductivity {W/m-K}
    1600,                    !- Density {kg/m3}
    900,                     !- Specific Heat {J/kg-K}
    0.9,                     !- Thermal Absorptance
    0.7,                     !- Solar Absorptance
    0.7;                     !- Visible Absorptance

Material,
    EIFS Or Stucco Finish,   !- Name
    Smooth,                  !- Roughness
    0.0095,                  !- Thickness {m}
    0.72,                    !- Conductivity {W/m-K}
    1856,                    !- Density {kg/m3}
    840,                     !- Specific Heat {J/kg-K}
    0.9,                     !- Thermal Absorptance
    0.7,                     !- Solar Absorptance
    0.7;                     !- Visible Absorptance

Material,
    Stone,                   !- Name
    MediumRough,             !- Roughness
    0.0254,                  !- Thickness {m}
    3.17,                    !- Conductivity {W/m-K}
    2560,                    !- Density {kg/m3}
    790,                     !- Specific Heat {J/kg-K}
    0.9,                     !- Thermal Absorptance
    0.7,                     !- Solar Absorptance
    0.7;                     !- Visible Absorptance

Material,
    Slate Tile,              !- Name
    VeryRough,               !- Roughness
    0.0127,                  !- Thickness {m}
    1.59,                    !- Conductivity {W/m-K}
    1920,                    !- Density {kg/m3}